Distrib/IEEETestCases/ShortCircuitCases/123Bus/ieee123_Curr_Seq.Txt

SYMMETRICAL COMPONENT CURRENTS BY CIRCUIT ELEMENT (first 3 phases)

Element             Term      I1         I2         %I2/I1    I0         %I0/I1   %Normal %Emergency

"Vsource.source" ..   1      532.86       73.325    13.76      61.642    11.57      0.00     0.00
   -                  2      532.86       73.325    13.76      61.642    11.57      0.00     0.00
"Transformer.reg1a"   1      532.86       73.325    13.76      61.642    11.57     85.70    62.84
   -                  2       513.6       70.675    13.76      59.414    11.57      0.00     0.00
"Line.l115" .......   1       513.6       70.675    13.76      59.414    11.57    157.62   105.08
   -                  2       513.6       70.675    13.76      59.414    11.57      0.00     0.00
"Line.l1" .........   1      9.0001            0     0.00           0     0.00      2.25     1.50
   -                  2      9.0003            0     0.00           0     0.00      0.00     0.00
"Line.l2" .........   1      47.424            0     0.00           0     0.00     11.86     7.90
   -                  2      47.424            0     0.00           0     0.00      0.00     0.00
"Line.l3" .........   1      488.93       70.211    14.36      58.579    11.98    153.10   102.07
   -                  2      488.93       70.211    14.36      58.579    11.98      0.00     0.00
"Line.l4" .........   1      19.138            0     0.00           0     0.00      4.78     3.19
   -                  2      19.138            0     0.00           0     0.00      0.00     0.00
"Line.l5" .........   1      28.286            0     0.00           0     0.00      7.07     4.71
   -                  2      28.287            0     0.00           0     0.00      0.00     0.00
"Line.l6" .........   1      19.111            0     0.00           0     0.00      4.78     3.19
   -                  2      19.111            0     0.00           0     0.00      0.00     0.00
"Line.l7" .........   1      485.91        67.25    13.84      55.645    11.45    150.83   100.55
   -                  2      485.91        67.25    13.84      55.645    11.45      0.00     0.00
"Line.l8" .........   1      9.0306            0     0.00           0     0.00      2.26     1.51
   -                  2      9.0308            0     0.00           0     0.00      0.00     0.00
"Line.l9" .........   1      46.501            0     0.00           0     0.00     11.63     7.75
   -                  2      46.501            0     0.00           0     0.00      0.00     0.00
"Line.l10" ........   1      467.59       54.667    11.69      43.503     9.30    139.29    92.86
   -                  2      467.59       54.667    11.69      43.503     9.30      0.00     0.00
"Line.l11" ........   1      28.038            0     0.00           0     0.00      7.01     4.67
   -                  2      28.038            0     0.00           0     0.00      0.00     0.00
"Line.l12" ........   1      46.498            0     0.00           0     0.00     11.62     7.75
   -                  2      46.498            0     0.00           0     0.00      0.00     0.00
"Line.l13" ........   1      179.76       27.648    15.38       22.61    12.58     57.39    38.26
   -                  2      179.76       27.648    15.38       22.61    12.58      0.00     0.00
"Line.l14" ........   1      18.762            0     0.00           0     0.00      4.69     3.13
   -                  2      18.762            0     0.00           0     0.00      0.00     0.00
"Line.l15" ........   1       9.277            0     0.00           0     0.00      2.32     1.55
   -                  2      9.2773            0     0.00           0     0.00      0.00     0.00
"Line.l16" ........   1      18.416            0     0.00           0     0.00      4.60     3.07
   -                  2      18.417            0     0.00           0     0.00      0.00     0.00
"Line.l17" ........   1      9.2032            0     0.00           0     0.00      2.30     1.53
   -                  2      9.2036            0     0.00           0     0.00      0.00     0.00
"Line.l18" ........   1      37.513            0     0.00           0     0.00      9.38     6.25
   -                  2      37.513            0     0.00           0     0.00      0.00     0.00
"Line.l19" ........   1      43.624       12.626    28.94      11.915    27.31     14.01     9.34
   -                  2      43.624       12.626    28.94      11.915    27.31      0.00     0.00
"Line.l20" ........   1      18.732            0     0.00           0     0.00      4.68     3.12
   -                  2      18.733            0     0.00           0     0.00      0.00     0.00
"Line.l21" ........   1      19.087            0     0.00           0     0.00      4.77     3.18
   -                  2      19.087            0     0.00           0     0.00      0.00     0.00
"Line.l22" ........   1      37.262       18.988    50.96      18.276    49.05     14.01     9.34
   -                  2      37.262       18.988    50.96      18.276    49.05      0.00     0.00
"Line.l23" ........   1      18.577            0     0.00           0     0.00      4.64     3.10
   -                  2      18.578            0     0.00           0     0.00      0.00     0.00
"Line.l24" ........   1       31.07       16.732    53.85      16.194    52.12     14.01     9.34
   -                  2      31.071       16.732    53.85      16.194    52.12      0.00     0.00
"Line.l25" ........   1      18.608            0     0.00           0     0.00      4.65     3.10
   -                  2      18.608            0     0.00           0     0.00      0.00     0.00
"Line.l26" ........   1      18.595       10.864    58.42      10.615    57.08      9.30     6.20
   -                  2      18.596       10.864    58.42      10.615    57.08      0.00     0.00
"Line.l27" ........   1      18.608            0     0.00           0     0.00      4.65     3.10
   -                  2      18.609            0     0.00           0     0.00      0.00     0.00
"Line.l28" ........   1       18.59            0     0.00           0     0.00      4.65     3.10
   -                  2       18.59            0     0.00           0     0.00      0.00     0.00
"Line.l29" ........   1      18.609            0     0.00           0     0.00      4.65     3.10
   -                  2      18.609            0     0.00           0     0.00      0.00     0.00
"Line.l30" ........   1      12.352       6.3035    51.03      6.0495    48.98      4.65     3.10
   -                  2      12.352       6.3036    51.03      6.0494    48.97      0.00     0.00
"Line.l31" ........   1       6.196       6.1966   100.01      6.1967   100.01      4.65     3.10
   -                  2      6.1964       6.1967   100.00      6.1967   100.00      0.00     0.00
"Line.l32" ........   1  0.00062787   5.811E-005     9.26  1.805E-005     2.87      0.00     0.00
   -                  2  5.6837E-012   1.5365E-011   270.32  1.3558E-012    23.85      0.00     0.00
"Line.l33" ........   1      9.2967            0     0.00           0     0.00      2.32     1.55
   -                  2       9.297            0     0.00           0     0.00      0.00     0.00
"Line.l34" ........   1       27.62            0     0.00           0     0.00      6.90     4.60
   -                  2       27.62            0     0.00           0     0.00      0.00     0.00
"Line.l35" ........   1      18.428            0     0.00           0     0.00      4.61     3.07
   -                  2      18.429            0     0.00           0     0.00      0.00     0.00
"Line.l36" ........   1      105.46       3.5508     3.37      2.7154     2.57     27.22    18.15
   -                  2      105.46       3.5509     3.37      2.7154     2.57      0.00     0.00
"Line.l37" ........   1      18.429            0     0.00           0     0.00      4.61     3.07
   -                  2      18.429            0     0.00           0     0.00      0.00     0.00
"Line.l38" ........   1      18.316            0     0.00           0     0.00      4.58     3.05
   -                  2      18.316            0     0.00           0     0.00      0.00     0.00
"Line.l39" ........   1      9.1187            0     0.00           0     0.00      2.28     1.52
   -                  2      9.1191            0     0.00           0     0.00      0.00     0.00
"Line.l40" ........   1       9.279            0     0.00           0     0.00      2.32     1.55
   -                  2      9.2793            0     0.00           0     0.00      0.00     0.00
"Line.l41" ........   1      102.39       6.5649     6.41      5.7707     5.64     27.22    18.15
   -                  2       102.4       6.5649     6.41      5.7707     5.64      0.00     0.00
"Line.l42" ........   1      18.997            0     0.00           0     0.00      4.75     3.17
   -                  2      18.998            0     0.00           0     0.00      0.00     0.00
"Line.l43" ........   1      92.993        4.199     4.52      2.3874     2.57     24.87    16.58
   -                  2      92.993       4.1991     4.52      2.3874     2.57      0.00     0.00
"Line.l44" ........   1      18.849            0     0.00           0     0.00      4.71     3.14
   -                  2      18.849            0     0.00           0     0.00      0.00     0.00
"Line.l45" ........   1      86.761       2.1124     2.43      3.9283     4.53     22.52    15.01
   -                  2      86.761       2.1123     2.43      3.9283     4.53      0.00     0.00
"Line.l46" ........   1      9.4524            0     0.00           0     0.00      2.36     1.58
   -                  2      9.4527            0     0.00           0     0.00      0.00     0.00
"Line.l47" ........   1      35.848      0.29512     0.82     0.52336     1.46      9.11     6.08
   -                  2      35.848      0.29511     0.82     0.52337     1.46      0.00     0.00
"Line.l48" ........   1      33.032       1.9476     5.90      3.5746    10.82      9.10     6.07
   -                  2      33.033       1.9475     5.90      3.5746    10.82      0.00     0.00
"Line.l49" ........   1      9.3555       5.4411    58.16      5.3075    56.73      4.65     3.10
   -                  2      9.3559        5.441    58.16      5.3075    56.73      0.00     0.00
"Line.l50" ........   1      3.1511       3.1525   100.05      3.1526   100.05      2.36     1.58
   -                  2      3.1514       3.1525   100.04      3.1526   100.04      0.00     0.00
"Line.l51" ........   1      0.0025   0.00026293    10.52  3.7939E-005     1.52      0.00     0.00
   -                  2  9.9519E-008   8.8931E-008    89.36  8.8555E-008    88.98      0.00     0.00
"Line.l52" ........   1      274.14       26.134     9.53      18.633     6.80     78.69    52.46
   -                  2      274.14       26.134     9.53      18.633     6.80      0.00     0.00
"Line.l53" ........   1      268.22        20.18     7.52      12.584     4.69     74.19    49.46
   -                  2      268.22        20.18     7.52      12.584     4.69      0.00     0.00
"Line.l54" ........   1      6.1079        2.998    49.08      3.1113    50.94      2.31     1.54
   -                  2      6.1083       2.9981    49.08      3.1113    50.94      0.00     0.00
"Line.l55" ........   1      262.44       19.863     7.57      12.226     4.66     71.98    47.98
   -                  2      262.44       19.863     7.57      12.226     4.66      0.00     0.00
"Line.l56" ........   1      3.0258       3.0262   100.01      3.0262   100.01      2.27     1.51
   -                  2      3.0262       3.0262   100.00      3.0262   100.00      0.00     0.00
"Line.l57" ........   1      18.299            0     0.00           0     0.00      4.57     3.05
   -                  2        18.3            0     0.00           0     0.00      0.00     0.00
"Line.l58" ........   1      256.68       25.289     9.85      17.829     6.95     71.98    47.98
   -                  2      256.68       25.289     9.85      17.829     6.95      0.00     0.00
"Line.l59" ........   1      9.1079            0     0.00           0     0.00      2.28     1.52
   -                  2      9.1082            0     0.00           0     0.00      0.00     0.00
"Line.l60" ........   1   0.0012956   0.00015906    12.28  2.7429E-005     2.12      0.00     0.00
   -                  2  0.00041882   4.2364E-006     1.01  3.4654E-006     0.83      0.00     0.00
"Line.l61" ........   1      58.995       13.171    22.33      9.7972    16.61     20.18    13.45
   -                  2      59.001       13.171    22.32      9.7974    16.61      0.00     0.00
"Line.l62" ........   1      52.821        6.982    13.22       5.245     9.93     15.53    10.36
   -                  2      52.825        6.982    13.22      5.2451     9.93      0.00     0.00
"Line.l63" ........   1      46.506       11.306    24.31      11.564    24.87     15.53    10.36
   -                  2      46.515       11.306    24.31      11.564    24.86      0.00     0.00
"Line.l64" ........   1      35.195       16.196    46.02      11.621    33.02     15.54    10.36
   -                  2      35.205       16.195    46.00      11.621    33.01      0.00     0.00
"Line.l65" ........   1      11.615       11.621   100.06      11.621   100.06      8.71     5.81
   -                  2      11.621       11.621   100.00      11.621   100.00      0.00     0.00
"Line.l66" ........   1      53.801            0     0.00           0     0.00     13.45     8.97
   -                  2      53.801            0     0.00           0     0.00      0.00     0.00
"Line.l67" ........   1      123.69       5.2162     4.22      10.037     8.11     32.86    21.90
   -                  2      123.69       5.2163     4.22      10.037     8.11      0.00     0.00
"Line.l68" ........   1      66.811       8.6905    13.01      8.0828    12.10     20.58    13.72
   -                  2      66.811       8.6904    13.01      8.0828    12.10      0.00     0.00
"Line.l69" ........   1      44.854            0     0.00           0     0.00     11.21     7.48
   -                  2      44.855            0     0.00           0     0.00      0.00     0.00
"Line.l70" ........   1       26.93            0     0.00           0     0.00      6.73     4.49
   -                  2      26.931            0     0.00           0     0.00      0.00     0.00
"Line.l71" ........   1      17.958            0     0.00           0     0.00      4.49     2.99
   -                  2      17.958            0     0.00           0     0.00      0.00     0.00
"Line.l72" ........   1      55.358            0     0.00           0     0.00     13.84     9.23
   -                  2      55.358            0     0.00           0     0.00      0.00     0.00
"Line.l73" ........   1      111.48       17.549    15.74      12.643    11.34     30.86    20.57
   -                  2      111.48       17.549    15.74      12.643    11.34      0.00     0.00
"Line.l74" ........   1      37.301            0     0.00           0     0.00      9.33     6.22
   -                  2      37.301            0     0.00           0     0.00      0.00     0.00
"Line.l75" ........   1      18.108            0     0.00           0     0.00      4.53     3.02
   -                  2      18.108            0     0.00           0     0.00      0.00     0.00
"Line.l76" ........   1       77.91      0.86962     1.12      1.4321     1.84     19.56    13.04
   -                  2      77.909      0.86949     1.12      1.4321     1.84      0.00     0.00
"Line.l77" ........   1      34.985       12.959    37.04        13.2    37.73     14.14     9.43
   -                  2      34.985       12.959    37.04        13.2    37.73      0.00     0.00
"Line.l78" ........   1      78.254       6.5383     8.36      7.0902     9.06     20.24    13.49
   -                  2      78.254       6.5383     8.36      7.0902     9.06      0.00     0.00
"Line.l79" ........   1      6.4871       6.4875   100.01      6.4874   100.01      4.87     3.24
   -                  2      6.4874       6.4874   100.00      6.4874   100.00      0.00     0.00
"Line.l80" ........   1      79.327       5.7541     7.25      6.1908     7.80     20.25    13.50
   -                  2      79.325       5.7542     7.25      6.1908     7.80      0.00     0.00
"Line.l81" ........   1      80.592       10.258    12.73      10.974    13.62     21.83    14.55
   -                  2      80.591       10.258    12.73      10.974    13.62      0.00     0.00
"Line.l82" ........   1      83.332       5.4586     6.55      6.1284     7.35     21.83    14.55
   -                  2      83.331       5.4585     6.55      6.1284     7.35      0.00     0.00
"Line.l83" ........   1      27.047            0     0.00           0     0.00      6.76     4.51
   -                  2      27.048            0     0.00           0     0.00      0.00     0.00
"Line.l84" ........   1      85.738       2.5183     2.94      3.3555     3.91     21.84    14.56
   -                  2      85.737       2.5184     2.94      3.3555     3.91      0.00     0.00
"Line.l85" ........   1      18.039            0     0.00           0     0.00      4.51     3.01
   -                  2      18.039            0     0.00           0     0.00      0.00     0.00
"Line.l86" ........   1      32.512        10.32    31.74       10.52    32.36     12.05     8.03
   -                  2      32.512        10.32    31.74       10.52    32.36      0.00     0.00
"Line.l87" ........   1      21.043            0     0.00           0     0.00      5.26     3.51
   -                  2      21.043            0     0.00           0     0.00      0.00     0.00
"Line.l88" ........   1      21.581       1.2843     5.95      11.735    54.38      8.11     5.41
   -                  2      21.581       1.2843     5.95      11.735    54.38      0.00     0.00
"Line.l89" ........   1      20.614            0     0.00           0     0.00      5.15     3.44
   -                  2      20.614            0     0.00           0     0.00      0.00     0.00
"Line.l90" ........   1      16.002       7.1929    44.95      7.3175    45.73      5.25     3.50
   -                  2      16.002       7.1928    44.95      7.3176    45.73      0.00     0.00
"Line.l91" ........   1      21.011            0     0.00           0     0.00      5.25     3.50
   -                  2      21.011            0     0.00           0     0.00      0.00     0.00
"Line.l92" ........   1      11.948         5.85    48.96      6.0991    51.05      4.48     2.99
   -                  2      11.949       5.8499    48.96      6.0991    51.05      0.00     0.00
"Line.l93" ........   1      17.913            0     0.00           0     0.00      4.48     2.99
   -                  2      17.913            0     0.00           0     0.00      0.00     0.00
"Line.l94" ........   1      5.9784       5.9788   100.01      5.9788   100.01      4.48     2.99
   -                  2      5.9788       5.9788   100.00      5.9788   100.00      0.00     0.00
"Line.l95" ........   1      8.9692            0     0.00           0     0.00      2.24     1.49
   -                  2      8.9694            0     0.00           0     0.00      0.00     0.00
"Line.l96" ........   1      18.331      0.61321     3.35     0.30692     1.67      4.81     3.21
   -                  2      18.331      0.61321     3.35      0.3069     1.67      0.00     0.00
"Line.l97" ........   1       12.37       6.2181    50.27      6.1793    49.95      4.81     3.21
   -                  2      12.371       6.2182    50.26      6.1792    49.95      0.00     0.00
"Line.l98" ........   1      6.4125        6.414   100.02      6.4141   100.03      4.81     3.21
   -                  2      6.4129        6.414   100.02      6.4141   100.02      0.00     0.00
"Line.l99" ........   1   0.0025938   0.00027049    10.43  5.5916E-005     2.16      0.00     0.00
   -                  2  2.4542E-012   1.4841E-012    60.47  3.0917E-012   125.97      0.00     0.00
"Line.l100" .......   1      45.246            0     0.00           0     0.00     11.31     7.54
   -                  2      45.246            0     0.00           0     0.00      0.00     0.00
"Line.l101" .......   1      33.402       18.199    54.49      19.078    57.12     16.11    10.74
   -                  2      33.402       18.199    54.48      19.078    57.12      0.00     0.00
"Line.l102" .......   1      36.215            0     0.00           0     0.00      9.05     6.04
   -                  2      36.215            0     0.00           0     0.00      0.00     0.00
"Line.l103" .......   1      18.123            0     0.00           0     0.00      4.53     3.02
   -                  2      18.124            0     0.00           0     0.00      0.00     0.00
"Line.l104" .......   1      35.793            0     0.00           0     0.00      8.95     5.97
   -                  2      35.793            0     0.00           0     0.00      0.00     0.00
"Line.l105" .......   1      21.476       21.479   100.01      21.478   100.01     16.11    10.74
   -                  2      21.477       21.479   100.01      21.478   100.01      0.00     0.00
"Line.l106" .......   1      17.909            0     0.00           0     0.00      4.48     2.98
   -                  2      17.909            0     0.00           0     0.00      0.00     0.00
"Line.l107" .......   1      64.435            0     0.00           0     0.00     16.11    10.74
   -                  2      64.436            0     0.00           0     0.00      0.00     0.00
"Line.l108" .......   1   0.0032402   0.00034118    10.53  6.6088E-005     2.04      0.00     0.00
   -                  2  2.8612E-012   7.383E-013    25.80  2.3967E-012    83.77      0.00     0.00
"Line.l109" .......   1      46.416            0     0.00           0     0.00     11.60     7.74
   -                  2      46.417            0     0.00           0     0.00      0.00     0.00
"Line.l110" .......   1      9.0331            0     0.00           0     0.00      2.26     1.51
   -                  2      9.0337            0     0.00           0     0.00      0.00     0.00
"Line.l111" .......   1      37.384            0     0.00           0     0.00      9.35     6.23
   -                  2      37.384            0     0.00           0     0.00      0.00     0.00
"Line.l112" .......   1      28.235            0     0.00           0     0.00      7.06     4.71
   -                  2      28.235            0     0.00           0     0.00      0.00     0.00
"Line.l113" .......   1      9.0551            0     0.00           0     0.00      2.26     1.51
   -                  2      9.0554            0     0.00           0     0.00      0.00     0.00
"Line.l114" .......   1      123.81       15.698    12.68      8.8532     7.15     34.09    22.73
   -                  2      123.81       15.698    12.68      8.8532     7.15      0.00     0.00
"Line.l116" .......   1      280.06       32.179    11.49      24.767     8.84     83.21    55.47
   -                  2      280.06       32.179    11.49      24.767     8.84      0.00     0.00
"Line.l117" .......   1      192.43       20.802    10.81      17.022     8.85     56.63    37.75
   -                  2      192.43       20.802    10.81      17.022     8.85      0.00     0.00
"Line.l118" .......   1      48.481       8.6662    17.88      8.2247    16.96     16.11    10.74
   -                  2      48.481       8.6661    17.88      8.2247    16.96      0.00     0.00
"Line.sw1" ........   1       513.6       70.675    13.76      59.414    11.57    157.62   105.08
   -                  2       513.6       70.675    13.76      59.414    11.57      0.00     0.00
"Line.sw2" ........   1      280.06       32.179    11.49      24.767     8.84     83.21    55.47
   -                  2      280.06       32.179    11.49      24.767     8.84      0.00     0.00
"Line.sw3" ........   1      123.81       15.698    12.68      8.8532     7.15     34.09    22.73
   -                  2      123.81       15.698    12.68      8.8532     7.15      0.00     0.00
"Line.sw4" ........   1      200.83       23.839    11.87      19.774     9.85     60.17    40.11
   -                  2      200.83       23.839    11.87      19.774     9.85      0.00     0.00
"Line.sw5" ........   1      48.481       8.6662    17.88      8.2247    16.96     16.11    10.74
   -                  2      48.481       8.6662    17.88      8.2247    16.96      0.00     0.00
"Line.sw6" ........   1  0.00041879   4.2212E-006     1.01  3.5392E-006     0.85      0.00     0.00
   -                  2  0.00041879   4.2212E-006     1.01  3.5392E-006     0.85      0.00     0.00
"Line.sw7" ........   1           0            0     0.00           0     0.00      0.00     0.00
   -                  2           0            0     0.00           0     0.00      0.00     0.00
"Line.sw8" ........   1           0            0     0.00           0     0.00      0.00     0.00
   -                  2           0            0     0.00           0     0.00      0.00     0.00
"Transformer.xfm1"    1  0.00041882   4.2287E-006     1.01  3.4455E-006     0.82      0.00     0.00
   -                  2  8.6224E-013   3.2665E-013    37.88  1.0718E-013    12.43      0.00     0.00
"Capacitor.c83" ...   1      87.013      0.54328     0.62      1.0903     1.25      0.00     0.00
   -                  2      87.013      0.54328     0.62      1.0903     1.25      0.00     0.00
"Capacitor.c88a" ..   1      21.669            0     0.00           0     0.00      0.00     0.00
   -                  2      21.669            0     0.00           0     0.00      0.00     0.00
"Capacitor.c90b" ..   1      21.627            0     0.00           0     0.00      0.00     0.00
   -                  2      21.627            0     0.00           0     0.00      0.00     0.00
"Capacitor.c92c" ..   1      21.571            0     0.00           0     0.00      0.00     0.00
   -                  2      21.571            0     0.00           0     0.00      0.00     0.00
"Transformer.reg2a"   1      28.038            0     0.00           0     0.00      3.06     2.24
   -                  2      28.038            0     0.00           0     0.00      0.00     0.00
"Transformer.reg3a"   1      18.841            0     0.00           0     0.00      2.06     1.51
   -                  2      18.608            0     0.00           0     0.00      0.00     0.00
"Transformer.reg4a"   1      240.67            0     0.00           0     0.00     26.28    19.27
   -                  2      226.52            0     0.00           0     0.00      0.00     0.00
"Transformer.reg3c"   1      18.589            0     0.00           0     0.00      2.03     1.49
   -                  2      18.589            0     0.00           0     0.00      0.00     0.00
"Transformer.reg4b"   1      171.74            0     0.00           0     0.00     18.75    13.75
   -                  2      167.55            0     0.00           0     0.00      0.00     0.00
"Transformer.reg4c"   1      190.94            0     0.00           0     0.00     20.85    15.29
   -                  2      184.04            0     0.00           0     0.00      0.00     0.00
"Load.s1a" ........   1      18.163            0     0.00           0     0.00      0.00     0.00
"Load.s2b" ........   1      9.0003            0     0.00           0     0.00      0.00     0.00
"Load.s4c" ........   1      19.139            0     0.00           0     0.00      0.00     0.00
"Load.s5c" ........   1      9.1769            0     0.00           0     0.00      0.00     0.00
"Load.s6c" ........   1      19.111            0     0.00           0     0.00      0.00     0.00
"Load.s7a" ........   1      9.1639            0     0.00           0     0.00      0.00     0.00
"Load.s9a" ........   1      18.463            0     0.00           0     0.00      0.00     0.00
"Load.s10a" .......   1      9.2772            0     0.00           0     0.00      0.00     0.00
"Load.s11a" .......   1      18.762            0     0.00           0     0.00      0.00     0.00
"Load.s12b" .......   1      9.0308            0     0.00           0     0.00      0.00     0.00
"Load.s16c" .......   1      18.417            0     0.00           0     0.00      0.00     0.00
"Load.s17c" .......   1      9.2038            0     0.00           0     0.00      0.00     0.00
"Load.s19a" .......   1      18.781            0     0.00           0     0.00      0.00     0.00
"Load.s20a" .......   1      18.733            0     0.00           0     0.00      0.00     0.00
"Load.s22b" .......   1      19.087            0     0.00           0     0.00      0.00     0.00
"Load.s24c" .......   1      18.579            0     0.00           0     0.00      0.00     0.00
"Load.s28a" .......   1      18.731            0     0.00           0     0.00      0.00     0.00
"Load.s29a" .......   1      18.471            0     0.00           0     0.00      0.00     0.00
"Load.s30c" .......   1      18.591            0     0.00           0     0.00      0.00     0.00
"Load.s31c" .......   1      9.2939            0     0.00           0     0.00      0.00     0.00
"Load.s32c" .......   1      9.2976            0     0.00           0     0.00      0.00     0.00
"Load.s33a" .......   1      18.609            0     0.00           0     0.00      0.00     0.00
"Load.s34c" .......   1      18.879            0     0.00           0     0.00      0.00     0.00
"Load.s35a" .......   1      10.747            0     0.00           0     0.00      0.00     0.00
"Load.s37a" .......   1      18.429            0     0.00           0     0.00      0.00     0.00
"Load.s38b" .......   1      9.1983            0     0.00           0     0.00      0.00     0.00
...